%%%%%%%%%%%%%%%%%%%%%%%%%%%%%%%%%%%%%%%%%%%%%%%%%%%%%%%%%%%%%%%%%%%%%%%%%%%%%%%%
% SU2 configuration file                                                       %
% Case description: Linear Elasticity in Vertical Cantilever                   %
% Author: Ruben Sanchez Fernandez                                              %
% Institution: Imperial College London                                         %
% Date: 30/10/2017                                                             %
% File Version 5.0.0 "Raven"                                                   %
%%%%%%%%%%%%%%%%%%%%%%%%%%%%%%%%%%%%%%%%%%%%%%%%%%%%%%%%%%%%%%%%%%%%%%%%%%%%%%%%

%%%%%%%%%%%%%%%%%%%%%%%
% PROBLEM DEFINITION
%%%%%%%%%%%%%%%%%%%%%%%   
          
PHYSICAL_PROBLEM= ELASTICITY

%%%%%%%%%%%%%%%%%%%%%%%
% STRUCTURAL PROPERTIES
%%%%%%%%%%%%%%%%%%%%%%%

GEOMETRIC_CONDITIONS= SMALL_DEFORMATIONS
MATERIAL_MODEL= LINEAR_ELASTIC

ELASTICITY_MODULUS=5.0E9
POISSON_RATIO=0.35
FORMULATION_ELASTICITY_2D = PLANE_STRESS

%%%%%%%%%%%%%%%%%%%%%%%
% INPUT
%%%%%%%%%%%%%%%%%%%%%%%

MESH_FORMAT= SU2
MESH_FILENAME= mesh.su2

%%%%%%%%%%%%%%%%%%%%%%%
% BOUNDARY CONDITIONS
%%%%%%%%%%%%%%%%%%%%%%%

MARKER_CLAMPED = ( clamped )
MARKER_LOAD= ( left, 1.0, 1000, 1, 0, 0)
MARKER_PRESSURE= ( upper, 0, right, 0) 

%%%%%%%%%%%%%%%%%%%%%%%
% LINEAR SOLVER
%%%%%%%%%%%%%%%%%%%%%%%

LINEAR_SOLVER= CONJUGATE_GRADIENT
LINEAR_SOLVER_PREC= ILU
LINEAR_SOLVER_ERROR= 1E-8
LINEAR_SOLVER_ITER= 20000

%%%%%%%%%%%%%%%%%%%%%%%
% OUTPUT
%%%%%%%%%%%%%%%%%%%%%%%

OUTPUT_FORMAT= PARAVIEW
VOLUME_STRUCTURE_FILENAME= cantilever

CONV_FILENAME= history
RESTART_STRUCTURE_FILENAME= restart_cantilever.dat
